m0 d1 g s1 b nmos_3p3 W=1e-6 l=1e-6

 .param
 +nmos_3p3_noia='3.2e+041 + 3.5e+042' 
 +nmos_3p3_noib='1.2e+020 + 1.2e+020' 
 +nmos_3p3_noic='6.0e+008 + 6.0e+008'
.model  nmos_3p3.0  nmos
+level = 54
+lmin    = 2.8e-007      
+lmax    = 5e-007        
+wmin    = 2.2e-007      
+wmax    = 5e-007        
+version = 4.5           
+binunit = 2             
+paramchk= 1             
+mobmod  = 0             
+capmod  = 2             
+igcmod  = 0             
+igbmod  = 0             
+geomod  = 0             
+diomod  = 1             
+rdsmod  = 0             
+rbodymod= 0             
+rgatemod= 0             
+permod  = 1             
+acnqsmod= 0             
+trnqsmod= 0             
+tnom    = 25            
+toxe    = 8e-009        
+toxp    = 8e-009        
+toxm    = 8e-009        
+epsrox  = 3.9           
+wint    = 1e-008        
+lint    = 0             
+ll      = 0             
+wl      = 0             
+lln     = 1             
+wln     = 1             
+lw      = 0             
+ww      = 0             
+lwn     = 1             
+wwn     = 1             
+lwl     = 0             
+wwl     = 0             
+xl      = 0             
+xw      = 0             
+dlc     = 0             
+dwc     = 0             
+xpart   = 0             
+toxref  = 8e-009        
+dlcig   = 1.5e-007      
+vth0    = 0.70837662    
+lvth0   = -3.8715455e-008
+wvth0   = -1.430587e-008
+pvth0   = 4.3636364e-016
+k1      = 0.95938091    
+lk1     = -9.9985454e-008
+k2      = 0.054714558   
+lk2     = -4.1647636e-008
+wk2     = -1.9242857e-008
+pk2     = 5.388e-015    
+k3      = 0             
+k3b     = 0             
+w0      = 5e-007        
+dvt0    = 0             
+dvt1    = 0.53          
+dvt2    = 0             
+dvt0w   = 0             
+dvt1w   = 0             
+dvt2w   = 0             
+dsub    = 0.5           
+minv    = -0.25         
+voffl   = 0             
+dvtp0   = 0             
+dvtp1   = 0             
+lpe0    = 1.1e-007      
+lpeb    = 0             
+vbm     = -3            
+xj      = 1e-007        
+ngate   = 6e+019        
+ndep    = 3e+017        
+nsd     = 1e+020        
+phin    = 0.07          
+cdsc    = 0             
+cdscb   = 0             
+cdscd   = 0             
+cit     = 0             
+voff    = -0.1262652    
+lvoff   = 3.9354545e-009
+wvoff   = 5.3064935e-009
+pvoff   = -1.4858182e-015
+nfactor = 1             
+eta0    = 0.75          
+etab    = -0.32         
+u0      = 0.023671338   
+lu0     = 4.6525455e-009
+wu0     = 4.6066597e-009
+pu0     = -6.5127273e-016
+ua      = -1.1554452e-009
+lua     = 7.0220545e-016
+wua     = 2.7073777e-016
+pua     = -1.4149745e-022
+ub      = 3.3771156e-018
+lub     = -7.9058636e-025
+wub     = -4.093733e-025
+pub     = 9.2644364e-032
+uc      = 2.2660166e-010
+luc     = -6.1360545e-017
+wuc     = -3.2577351e-017
+puc     = 5.4467782e-024
+eu      = 1.67          
+vsat    = 92454.546     
+lvsat   = -0.0027272727 
+wvsat   = -0.00021818182
+pvsat   = 1.3090909e-009
+a0      = 0.11197377    
+la0     = -3.1454545e-009
+wa0     = -6.2322078e-009
+pa0     = 1.7450182e-015
+ags     = 0.32403844    
+lags    = -1.5116364e-008
+wags    = 4.7930493e-008
+pags    = -1.2213818e-014
+a1      = 0             
+a2      = 1             
+b0      = 0             
+b1      = 0             
+keta    = -0.14896036   
+lketa   = 3.8830182e-008
+wketa   = 8.1643636e-009
+pketa   = -2.4261818e-015
+dwg     = 0             
+dwb     = 0             
+pclm    = 0.3741        
+lpclm   = -4.729e-008   
+wpclm   = 2.1028364e-008
+ppclm   = 8.5658182e-015
+pdiblc1 = 0.39          
+pdiblc2 = 0.003171      
+pdiblcb = 0.2           
+drout   = 0.56          
+pvag    = 0             
+delta   = 0.0036363636  
+ldelta  = 3.1818182e-009
+pscbe1  = 6.6469e+008   
+pscbe2  = 1.638e-005    
+fprout  = 0             
+pdits   = 0             
+pditsd  = 0             
+pditsl  = 0             
+rsh     = 7             
+rdsw    = 530           
+rdswmin = 50            
+rdwmin  = 0             
+rswmin  = 0             
+prwg    = 0             
+prwb    = 0             
+wr      = 1             
+alpha0  = 2.652013e-006 
+lalpha0 = -3.0506364e-013
+walpha0 = 4.8779221e-014
+palpha0 = -1.3658182e-020
+alpha1  = 0             
+beta0   = 19.905584     
+lbeta0  = 1.2863636e-007
+wbeta0  = 1.3848312e-007
+pbeta0  = 8.7272727e-016
+agidl   = 1.3268e-010   
+bgidl   = 1.8961e+009   
+cgidl   = 0.5           
+egidl   = 0.8           
+cgso    = 1e-010        
+cgdo    = 1e-010        
+cgbo    = 1e-013        
+cgdl    = 1e-010        
+cgsl    = 1e-010        
+clc     = 1e-007        
+cle     = 0.6           
+cf      = 0             
+ckappas = 0.6           
+ckappad = 0.6           
+vfbcv   = -1            
+acde    = 0.6           
+moin    = 15            
+noff    = 2             
+voffcv  = 0.005         
+tvoff   = 0.001         
+ltvoff  = 0             
+wtvoff  = 0             
+ptvoff  = 0             
+kt1     = -0.45934558   
+lkt1    = 4.2126364e-008
+wkt1    = 3.2086753e-008
+pkt1    = -8.6530909e-015
+kt1l    = 0             
+kt2     = -0.024730519  
+lkt2    = 1.2545455e-009
+wkt2    = 1.0597403e-009
+pkt2    = -2.9672727e-016
+ute     = -1.5675325    
+lute    = 9.0909091e-008
+wute    = 1.0441558e-007
+pute    = -4.3636364e-014
+ua1     = 1.675e-009    
+ub1     = -4.1945234e-018
+lub1    = 2.8745455e-025
+wub1    = 3.3492467e-025
+pub1    = -5.7490909e-032
+uc1     = -4.2363636e-011
+luc1    = -3.8181818e-018
+wuc1    = -6.5454545e-018
+puc1    = 1.8327273e-024
+prt     = 0             
+at      = 23000         
+fnoimod = 1             
+tnoimod = 0             
+em      = 4.1e+007      
+ef      = 0.95          
+noia    = nmos_3p3_noia  
+noib    = nmos_3p3_noib  
+noic    = nmos_3p3_noic  
+ntnoi   = 1             
+jss     = 2.2959e-007   
+jsws    = 2.1207e-013   
+jswgs   = 0             
+njs     = 1.01          
+ijthsfwd= 0.1           
+ijthsrev= 0.1           
+pbs     = 0.70172       
+cjs     = 0.00096797    
+mjs     = 0.32071       
+pbsws   = 0.8062        
+cjsws   = 1.5663e-010   
+mjsws   = 0.1           
+pbswgs  = 0.74743       
+cjswgs  = 5.9903e-010   
+mjswgs  = 0.32059       
+tpb     = 0.0018129     
+tcj     = 0.0009438     
+tpbsw   = 5e-005        
+tcjsw   = 0.00060474    
+tpbswg  = 0.0016872     
+tcjswg  = 0.001         
+xtis    = 3             
+dmcg    = 1.5e-007      
+saref   = 4.4e-007      
+sbref   = 4.4e-007      
+kvth0   = 0             
+ku0     = 0             
+kvsat   = 0             
.model  nmos_3p3.1  nmos
+level = 54
+lmin    = 5e-007        
+lmax    = 1.2e-006      
+wmin    = 2.2e-007      
+wmax    = 5e-007        
+version = 4.5           
+binunit = 2             
+paramchk= 1             
+mobmod  = 0             
+capmod  = 2             
+igcmod  = 0             
+igbmod  = 0             
+geomod  = 0             
+diomod  = 1             
+rdsmod  = 0             
+rbodymod= 0             
+rgatemod= 0             
+permod  = 1             
+acnqsmod= 0             
+trnqsmod= 0             
+tnom    = 25            
+toxe    = 8e-009        
+toxp    = 8e-009        
+toxm    = 8e-009        
+epsrox  = 3.9           
+wint    = 1e-008        
+lint    = 0             
+ll      = 0             
+wl      = 0             
+lln     = 1             
+wln     = 1             
+lw      = 0             
+ww      = 0             
+lwn     = 1             
+wwn     = 1             
+lwl     = 0             
+wwl     = 0             
+xl      = 0             
+xw      = 0             
+dlc     = 0             
+dwc     = 0             
+xpart   = 0             
+toxref  = 8e-009        
+dlcig   = 1.5e-007      
+vth0    = 0.67781184    
+lvth0   = -2.3433061e-008
+wvth0   = -1.2304653e-008
+pvth0   = -5.642449e-016
+k1      = 0.74639857    
+lk1     = 6.5057143e-009
+k2      = 0.0237458     
+lk2     = -2.6163257e-008
+wk2     = -3.01296e-009 
+pk2     = -2.7269486e-015
+k3      = 0             
+k3b     = 0             
+w0      = 5e-007        
+dvt0    = 0             
+dvt1    = 0.53          
+dvt2    = 0             
+dvt0w   = 0             
+dvt1w   = 0             
+dvt2w   = 0             
+dsub    = 0.5           
+minv    = -0.25         
+voffl   = 0             
+dvtp0   = 0             
+dvtp1   = 0             
+lpe0    = 1.1e-007      
+lpeb    = 0             
+vbm     = -3            
+xj      = 1e-007        
+ngate   = 6e+019        
+ndep    = 3e+017        
+nsd     = 1e+020        
+phin    = 0.07          
+cdsc    = 0             
+cdscb   = 0             
+cdscd   = 0             
+cit     = 0             
+voff    = -0.11273959   
+lvoff   = -2.8273469e-009
+wvoff   = 1.6942041e-009
+pvoff   = 3.2032653e-016
+nfactor = 1             
+eta0    = 0.75          
+etab    = -0.32         
+u0      = 0.029675694   
+lu0     = 1.6503673e-009
+wu0     = 8.572898e-010 
+pu0     = 1.2234122e-015
+ua      = -1.2961984e-009
+lua     = 7.7258204e-016
+wua     = 4.7264816e-017
+pua     = -2.976098e-023
+ub      = 3.0836898e-018
+lub     = -6.4387347e-025
+wub     = -2.7080816e-026
+pub     = -9.8501878e-032
+uc      = 8.4613959e-011
+luc     = 9.6333061e-018
+wuc     = 2.2398367e-018
+puc     = -1.1961815e-023
+eu      = 1.67          
+vsat    = 83571.429     
+lvsat   = 0.0017142857  
+wvsat   = -0.0017142857 
+pvsat   = 2.0571429e-009
+a0      = 1.0861147     
+la0     = -4.9021592e-007
+wa0     = -5.1997224e-008
+pa0     = 2.4627526e-014
+ags     = 0.47870122    
+lags    = -9.2447755e-008
+wags    = 4.3304327e-008
+pags    = -9.9007347e-015
+a1      = 0             
+a2      = 1             
+b0      = 0             
+b1      = 0             
+keta    = -0.028417143  
+lketa   = -2.1441429e-008
+wketa   = -7.4262857e-009
+pketa   = 5.3691429e-015
+dwg     = 0             
+dwb     = 0             
+pclm    = 0.082893878   
+lpclm   = 9.8313061e-008
+wpclm   = 4.3902367e-008
+ppclm   = -2.8711837e-015
+pdiblc1 = 0.39          
+pdiblc2 = 0.001359      
+lpdiblc2= 9.06e-010     
+pdiblcb = 0.2           
+drout   = 0.56          
+pvag    = 0             
+delta   = 0.0014285714  
+ldelta  = 4.2857143e-009
+pscbe1  = 6.6469e+008   
+pscbe2  = 1.638e-005    
+fprout  = 0             
+pdits   = 0             
+pditsd  = 0             
+pditsl  = 0             
+rsh     = 7             
+rdsw    = 530           
+rdswmin = 50            
+rdwmin  = 0             
+rswmin  = 0             
+prwg    = 0             
+prwb    = 0             
+wr      = 1             
+alpha0  = 6.5720816e-006
+lalpha0 = -2.265098e-012
+walpha0 = -1.5330612e-014
+palpha0 = 1.8396735e-020
+alpha1  = 0             
+beta0   = 22.625306     
+lbeta0  = -1.2312245e-006
+wbeta0  = -3.5054694e-007
+pbeta0  = 2.4538775e-013
+agidl   = 1.3268e-010   
+bgidl   = 1.8961e+009   
+cgidl   = 0.5           
+egidl   = 0.8           
+cgso    = 1e-010        
+cgdo    = 1e-010        
+cgbo    = 1e-013        
+cgdl    = 1e-010        
+cgsl    = 1e-010        
+clc     = 1e-007        
+cle     = 0.6           
+cf      = 0             
+ckappas = 0.6           
+ckappad = 0.6           
+vfbcv   = -1            
+acde    = 0.6           
+moin    = 15            
+noff    = 2             
+voffcv  = 0.005         
+tvoff   = 0.001         
+ltvoff  = 0             
+wtvoff  = 0             
+ptvoff  = 0             
+kt1     = -0.33916633   
+lkt1    = -1.7963265e-008
+wkt1    = -2.4641633e-009
+pkt1    = 8.6223674e-015
+kt1l    = 0             
+kt2     = -0.020311225  
+lkt2    = -9.5510204e-010
+wkt2    = -3.9183673e-011
+pkt2    = 2.5273469e-016
+ute     = -1.3857143    
+wute    = 1.7142857e-008
+ua1     = 1.675e-009    
+ub1     = -2.804398e-018
+lub1    = -4.0760816e-025
+wub1    = 5.6899592e-026
+pub1    = 8.1521633e-032
+uc1     = -6.0285714e-011
+luc1    = 5.1428571e-018
+wuc1    = 2.0571429e-018
+puc1    = -2.4685714e-024
+prt     = 0             
+at      = 23000         
+fnoimod = 1             
+tnoimod = 0             
+em      = 4.1e+007      
+ef      = 0.95          
+noia    = nmos_3p3_noia  
+noib    = nmos_3p3_noib  
+noic    = nmos_3p3_noic  
+ntnoi   = 1             
+jss     = 2.2959e-007   
+jsws    = 2.1207e-013   
+jswgs   = 0             
+njs     = 1.01          
+ijthsfwd= 0.1           
+ijthsrev= 0.1           
+pbs     = 0.70172       
+cjs     = 0.00096797    
+mjs     = 0.32071       
+pbsws   = 0.8062        
+cjsws   = 1.5663e-010   
+mjsws   = 0.1           
+pbswgs  = 0.74743       
+cjswgs  = 5.9903e-010   
+mjswgs  = 0.32059       
+tpb     = 0.0018129     
+tcj     = 0.0009438     
+tpbsw   = 5e-005        
+tcjsw   = 0.00060474    
+tpbswg  = 0.0016872     
+tcjswg  = 0.001         
+xtis    = 3             
+dmcg    = 1.5e-007      
+saref   = 4.4e-007      
+sbref   = 4.4e-007      
+kvth0   = 0             
+ku0     = 0             
+kvsat   = 0             
.model  nmos_3p3.2  nmos
+level = 54
+lmin    = 1.2e-006      
+lmax    = 1e-005        
+wmin    = 2.2e-007      
+wmax    = 5e-007        
+version = 4.5           
+binunit = 2             
+paramchk= 1             
+mobmod  = 0             
+capmod  = 2             
+igcmod  = 0             
+igbmod  = 0             
+geomod  = 0             
+diomod  = 1             
+rdsmod  = 0             
+rbodymod= 0             
+rgatemod= 0             
+permod  = 1             
+acnqsmod= 0             
+trnqsmod= 0             
+tnom    = 25            
+toxe    = 8e-009        
+toxp    = 8e-009        
+toxm    = 8e-009        
+epsrox  = 3.9           
+wint    = 1e-008        
+lint    = 0             
+ll      = 0             
+wl      = 0             
+lln     = 1             
+wln     = 1             
+lw      = 0             
+ww      = 0             
+lwn     = 1             
+wwn     = 1             
+lwl     = 0             
+wwl     = 0             
+xl      = 0             
+xw      = 0             
+dlc     = 0             
+dwc     = 0             
+xpart   = 0             
+toxref  = 8e-009        
+dlcig   = 1.5e-007      
+vth0    = 0.66097097    
+lvth0   = -3.224026e-009
+wvth0   = -9.7008312e-009
+pvth0   = -3.6888312e-015
+k1      = 0.79593364    
+lk1     = -5.2936364e-008
+k2      = 0.0056393844  
+lk2     = -4.4355584e-009
+wk2     = -7.4596769e-009
+pk2     = 2.6091117e-015
+k3      = 0             
+k3b     = 0             
+w0      = 5e-007        
+dvt0    = 0             
+dvt1    = 0.53          
+dvt2    = 0             
+dvt0w   = 0             
+dvt1w   = 0             
+dvt2w   = 0             
+dsub    = 0.5           
+minv    = -0.25         
+voffl   = 0             
+dvtp0   = 0             
+dvtp1   = 0             
+lpe0    = 1.1e-007      
+lpeb    = 0             
+vbm     = -3            
+xj      = 1e-007        
+ngate   = 6e+019        
+ndep    = 3e+017        
+nsd     = 1e+020        
+phin    = 0.07          
+cdsc    = 0             
+cdscb   = 0             
+cdscd   = 0             
+cit     = 0             
+voff    = -0.12631325   
+lvoff   = 1.3461039e-008
+wvoff   = 2.0819221e-009
+pvoff   = -1.4493507e-016
+nfactor = 1             
+eta0    = 0.75          
+etab    = -0.32         
+u0      = 0.032447266   
+lu0     = -1.6755195e-009
+wu0     = 6.7095584e-010
+pu0     = 1.447013e-015 
+ua      = -8.1547091e-010
+lua     = 1.9570909e-016
+wua     = 6.0458182e-018
+pua     = 1.9701818e-023
+ub      = 2.7427942e-018
+lub     = -2.347987e-025
+wub     = -1.6048831e-026
+pub     = -1.1174026e-031
+uc      = 9.84685e-011  
+luc     = -6.9921429e-018
+wuc     = -8.8975636e-018
+puc     = 1.4030649e-024
+eu      = 1.67          
+vsat    = 85000         
+a0      = 1.224418      
+la0     = -6.5617987e-007
+wa0     = 4.291948e-009 
+pa0     = -4.2919481e-014
+ags     = 0.25784649    
+lags    = 1.7257792e-007
+wags    = -2.606026e-009
+pags    = 4.5191688e-014
+a1      = 0             
+a2      = 1             
+b0      = 0             
+b1      = 0             
+keta    = -0.019651071  
+lketa   = -3.1960714e-008
+wketa   = -6.5992208e-010
+pketa   = -2.7504935e-015
+dwg     = 0             
+dwb     = 0             
+pclm    = 0.18918506    
+lpclm   = -2.9236364e-008
+wpclm   = 2.1551688e-009
+ppclm   = 4.7225454e-014
+pdiblc1 = 0.39          
+pdiblc2 = 0.00064013636 
+lpdiblc2= 1.7686364e-009
+pdiblcb = 0.2           
+drout   = 0.56          
+pvag    = 0             
+delta   = 0.0027272727  
+ldelta  = 2.7272727e-009
+pscbe1  = 6.6469e+008   
+pscbe2  = 1.638e-005    
+fprout  = 0             
+pdits   = 0             
+pditsd  = 0             
+pditsl  = 0             
+rsh     = 7             
+rdsw    = 530           
+rdswmin = 50            
+rdwmin  = 0             
+rswmin  = 0             
+prwg    = 0             
+prwb    = 0             
+wr      = 1             
+alpha0  = 7.5243347e-005
+lalpha0 = -8.4670617e-011
+walpha0 = 7.5358442e-012
+palpha0 = -9.043013e-018
+alpha1  = 0             
+beta0   = 24.210162     
+lbeta0  = -3.133052e-006
+wbeta0  = 1.1381299e-007
+pbeta0  = -3.1184416e-013
+agidl   = 1.3268e-010   
+bgidl   = 1.8961e+009   
+cgidl   = 0.5           
+egidl   = 0.8           
+cgso    = 1e-010        
+cgdo    = 1e-010        
+cgbo    = 1e-013        
+cgdl    = 1e-010        
+cgsl    = 1e-010        
+clc     = 1e-007        
+cle     = 0.6           
+cf      = 0             
+ckappas = 0.6           
+ckappad = 0.6           
+vfbcv   = -1            
+acde    = 0.6           
+moin    = 15            
+noff    = 2             
+voffcv  = 0.005         
+tvoff   = 0.001         
+ltvoff  = 0             
+wtvoff  = 0             
+ptvoff  = 0             
+kt1     = -0.32898149   
+lkt1    = -3.0185065e-008
+wkt1    = -7.3528831e-009
+pkt1    = 1.4488831e-014
+kt1l    = 0             
+kt2     = -0.021107143  
+wkt2    = 1.7142857e-010
+ute     = -1.3857143    
+wute    = 1.7142857e-008
+ua1     = 1.675e-009    
+ub1     = -2.5166039e-018
+lub1    = -7.5296104e-025
+wub1    = 2.224987e-026 
+pub1    = 1.231013e-031 
+uc1     = -5.6e-011     
+prt     = 0             
+at      = 23000         
+fnoimod = 1             
+tnoimod = 0             
+em      = 4.1e+007      
+ef      = 0.95          
+noia    = nmos_3p3_noia  
+noib    = nmos_3p3_noib  
+noic    = nmos_3p3_noic  
+ntnoi   = 1             
+jss     = 2.2959e-007   
+jsws    = 2.1207e-013   
+jswgs   = 0             
+njs     = 1.01          
+ijthsfwd= 0.1           
+ijthsrev= 0.1           
+pbs     = 0.70172       
+cjs     = 0.00096797    
+mjs     = 0.32071       
+pbsws   = 0.8062        
+cjsws   = 1.5663e-010   
+mjsws   = 0.1           
+pbswgs  = 0.74743       
+cjswgs  = 5.9903e-010   
+mjswgs  = 0.32059       
+tpb     = 0.0018129     
+tcj     = 0.0009438     
+tpbsw   = 5e-005        
+tcjsw   = 0.00060474    
+tpbswg  = 0.0016872     
+tcjswg  = 0.001         
+xtis    = 3             
+dmcg    = 1.5e-007      
+saref   = 4.4e-007      
+sbref   = 4.4e-007      
+kvth0   = 0             
+ku0     = 0             
+kvsat   = 0             
.model  nmos_3p3.3  nmos
+level = 54
+lmin    = 1e-005        
+lmax    = 5.0001e-005   
+wmin    = 2.2e-007      
+wmax    = 5e-007        
+version = 4.5           
+binunit = 2             
+paramchk= 1             
+mobmod  = 0             
+capmod  = 2             
+igcmod  = 0             
+igbmod  = 0             
+geomod  = 0             
+diomod  = 1             
+rdsmod  = 0             
+rbodymod= 0             
+rgatemod= 0             
+permod  = 1             
+acnqsmod= 0             
+trnqsmod= 0             
+tnom    = 25            
+toxe    = 8e-009        
+toxp    = 8e-009        
+toxm    = 8e-009        
+epsrox  = 3.9           
+wint    = 1e-008        
+lint    = 0             
+ll      = 0             
+wl      = 0             
+lln     = 1             
+wln     = 1             
+lw      = 0             
+ww      = 0             
+lwn     = 1             
+wwn     = 1             
+lwl     = 0             
+wwl     = 0             
+xl      = 0             
+xw      = 0             
+dlc     = 0             
+dwc     = 0             
+xpart   = 0             
+toxref  = 8e-009        
+dlcig   = 1.5e-007      
+vth0    = 0.66064857    
+wvth0   = -1.0069714e-008
+k1      = 0.79064       
+k2      = 0.0051958286  
+wk2     = -7.1987657e-009
+k3      = 0             
+k3b     = 0             
+w0      = 5e-007        
+dvt0    = 0             
+dvt1    = 0.53          
+dvt2    = 0             
+dvt0w   = 0             
+dvt1w   = 0             
+dvt2w   = 0             
+dsub    = 0.5           
+minv    = -0.25         
+voffl   = 0             
+dvtp0   = 0             
+dvtp1   = 0             
+lpe0    = 1.1e-007      
+lpeb    = 0             
+vbm     = -3            
+xj      = 1e-007        
+ngate   = 6e+019        
+ndep    = 3e+017        
+nsd     = 1e+020        
+phin    = 0.07          
+cdsc    = 0             
+cdscb   = 0             
+cdscd   = 0             
+cit     = 0             
+voff    = -0.12496714   
+wvoff   = 2.0674286e-009
+nfactor = 1             
+eta0    = 0.75          
+etab    = -0.32         
+u0      = 0.032279714   
+wu0     = 8.1565714e-010
+ua      = -7.959e-010   
+wua     = 8.016e-018    
+ub      = 2.7193143e-018
+wub     = -2.7222857e-026
+uc      = 9.7769286e-011
+wuc     = -8.7572571e-018
+eu      = 1.67          
+vsat    = 85000         
+a0      = 1.1588        
+ags     = 0.27510429    
+wags    = 1.9131429e-009
+a1      = 0             
+a2      = 1             
+b0      = 0             
+b1      = 0             
+keta    = -0.022847143  
+wketa   = -9.3497143e-010
+dwg     = 0             
+dwb     = 0             
+pclm    = 0.18626143    
+wpclm   = 6.8777143e-009
+pdiblc1 = 0.39          
+pdiblc2 = 0.000817      
+pdiblcb = 0.2           
+drout   = 0.56          
+pvag    = 0             
+delta   = 0.003         
+pscbe1  = 6.6469e+008   
+pscbe2  = 1.638e-005    
+fprout  = 0             
+pdits   = 0             
+pditsd  = 0             
+pditsl  = 0             
+rsh     = 7             
+rdsw    = 530           
+rdswmin = 50            
+rdwmin  = 0             
+rswmin  = 0             
+prwg    = 0             
+prwb    = 0             
+wr      = 1             
+alpha0  = 6.6776286e-005
+walpha0 = 6.6315429e-012
+alpha1  = 0             
+beta0   = 23.896857     
+wbeta0  = 8.2628571e-008
+agidl   = 1.3268e-010   
+bgidl   = 1.8961e+009   
+cgidl   = 0.5           
+egidl   = 0.8           
+cgso    = 1e-010        
+cgdo    = 1e-010        
+cgbo    = 1e-013        
+cgdl    = 1e-010        
+cgsl    = 1e-010        
+clc     = 1e-007        
+cle     = 0.6           
+cf      = 0             
+ckappas = 0.6           
+ckappad = 0.6           
+vfbcv   = -1            
+acde    = 0.6           
+moin    = 15            
+noff    = 2             
+voffcv  = 0.005         
+tvoff   = 0.001         
+ltvoff  = 0             
+wtvoff  = 0             
+ptvoff  = 0             
+kt1     = -0.332        
+wkt1    = -5.904e-009   
+kt1l    = 0             
+kt2     = -0.021107143  
+wkt2    = 1.7142857e-010
+ute     = -1.3857143    
+wute    = 1.7142857e-008
+ua1     = 1.675e-009    
+ub1     = -2.5919e-018  
+wub1    = 3.456e-026    
+uc1     = -5.6e-011     
+prt     = 0             
+at      = 23000         
+fnoimod = 1             
+tnoimod = 0             
+em      = 4.1e+007      
+ef      = 0.95          
+noia    = nmos_3p3_noia  
+noib    = nmos_3p3_noib  
+noic    = nmos_3p3_noic  
+ntnoi   = 1             
+jss     = 2.2959e-007   
+jsws    = 2.1207e-013   
+jswgs   = 0             
+njs     = 1.01          
+ijthsfwd= 0.1           
+ijthsrev= 0.1           
+pbs     = 0.70172       
+cjs     = 0.00096797    
+mjs     = 0.32071       
+pbsws   = 0.8062        
+cjsws   = 1.5663e-010   
+mjsws   = 0.1           
+pbswgs  = 0.74743       
+cjswgs  = 5.9903e-010   
+mjswgs  = 0.32059       
+tpb     = 0.0018129     
+tcj     = 0.0009438     
+tpbsw   = 5e-005        
+tcjsw   = 0.00060474    
+tpbswg  = 0.0016872     
+tcjswg  = 0.001         
+xtis    = 3             
+dmcg    = 1.5e-007      
+saref   = 4.4e-007      
+sbref   = 4.4e-007      
+kvth0   = 0             
+ku0     = 0             
+kvsat   = 0             
.model  nmos_3p3.4  nmos
+level = 54
+lmin    = 2.8e-007      
+lmax    = 5e-007        
+wmin    = 5e-007        
+wmax    = 1.2e-006      
+version = 4.5           
+binunit = 2             
+paramchk= 1             
+mobmod  = 0             
+capmod  = 2             
+igcmod  = 0             
+igbmod  = 0             
+geomod  = 0             
+diomod  = 1             
+rdsmod  = 0             
+rbodymod= 0             
+rgatemod= 0             
+permod  = 1             
+acnqsmod= 0             
+trnqsmod= 0             
+tnom    = 25            
+toxe    = 8e-009        
+toxp    = 8e-009        
+toxm    = 8e-009        
+epsrox  = 3.9           
+wint    = 1e-008        
+lint    = 0             
+ll      = 0             
+wl      = 0             
+lln     = 1             
+wln     = 1             
+lw      = 0             
+ww      = 0             
+lwn     = 1             
+wwn     = 1             
+lwl     = 0             
+wwl     = 0             
+xl      = 0             
+xw      = 0             
+dlc     = 0             
+dwc     = 0             
+xpart   = 0             
+toxref  = 8e-009        
+dlcig   = 1.5e-007      
+vth0    = 0.72356597    
+lvth0   = -4.1979273e-008
+wvth0   = -2.1596758e-008
+pvth0   = 2.0029964e-015
+k1      = 0.95938091    
+lk1     = -9.9985454e-008
+k2      = 0.041255727   
+lk2     = -3.7879164e-008
+wk2     = -1.2782618e-008
+pk2     = 3.5791331e-015
+k3      = 0             
+k3b     = 0             
+w0      = 5e-007        
+dvt0    = 0             
+dvt1    = 0.53          
+dvt2    = 0             
+dvt0w   = 0             
+dvt1w   = 0             
+dvt2w   = 0             
+dsub    = 0.5           
+minv    = -0.25         
+voffl   = 0             
+dvtp0   = 0             
+dvtp1   = 0             
+lpe0    = 1.1e-007      
+lpeb    = 0             
+vbm     = -3            
+xj      = 1e-007        
+ngate   = 6e+019        
+ndep    = 3e+017        
+nsd     = 1e+020        
+phin    = 0.07          
+cdsc    = 0             
+cdscb   = 0             
+cdscd   = 0             
+cit     = 0             
+voff    = -0.079311948  
+lvoff   = -9.2114546e-009
+wvoff   = -1.7231065e-008
+pvoff   = 4.8246982e-015
+nfactor = 1             
+eta0    = 0.75          
+etab    = -0.32         
+u0      = 0.033011551   
+lu0     = 4.0251818e-009
+wu0     = 1.2335751e-010
+pu0     = -3.5013818e-016
+ua      = -6.3005701e-010
+lua     = 3.9938436e-016
+wua     = 1.8551439e-017
+pua     = 3.8566691e-024
+ub      = 2.2836418e-018
+lub     = -9.0230909e-026
+wub     = 1.1549411e-025
+pub     = -2.4352626e-031
+uc      = 1.5877203e-010
+luc     = -3.4349127e-017
+wuc     = -1.9125195e-020
+puc     = -7.5187026e-024
+eu      = 1.67          
+vsat    = 71618.182     
+lvsat   = 0.0042909091  
+wvsat   = 0.0097832727  
+pvsat   = -2.0596364e-009
+a0      = 0.10680558    
+la0     = -1.6983636e-009
+wa0     = -3.7514805e-009
+pa0     = 1.0504145e-015
+ags     = 0.35500309    
+lags    = -1.1780546e-008
+wags    = 3.3067462e-008
+pags    = -1.3815011e-014
+a1      = 0             
+a2      = 1             
+b0      = 0             
+b1      = 0             
+keta    = -0.12490989   
+lketa   = 3.0254945e-008
+wketa   = -3.3798633e-009
+pketa   = 1.6899316e-015
+dwg     = 0             
+dwb     = 0             
+pclm    = 0.45921829    
+lpclm   = -8.0088e-008  
+wpclm   = -1.9828414e-008
+ppclm   = 2.4308858e-014
+pdiblc1 = 0.39          
+pdiblc2 = 0.003171      
+pdiblcb = 0.2           
+drout   = 0.56          
+pvag    = 0             
+delta   = 0.0036363636  
+ldelta  = 3.1818182e-009
+pscbe1  = 6.6469e+008   
+pscbe2  = 1.638e-005    
+fprout  = 0             
+pdits   = 0             
+pditsd  = 0             
+pditsl  = 0             
+rsh     = 7             
+rdsw    = 530           
+rdswmin = 50            
+rdwmin  = 0             
+rswmin  = 0             
+prwg    = 0             
+prwb    = 0             
+wr      = 1             
+alpha0  = 2.6500109e-006
+lalpha0 = -2.8170545e-013
+walpha0 = 4.9740218e-014
+palpha0 = -2.4870109e-020
+alpha1  = 0             
+beta0   = 20.982852     
+lbeta0  = -8.9454546e-008
+wbeta0  = -3.786053e-007
+pbeta0  = 1.0555636e-013
+agidl   = 1.3268e-010   
+bgidl   = 1.8961e+009   
+cgidl   = 0.5           
+egidl   = 0.8           
+cgso    = 1e-010        
+cgdo    = 1e-010        
+cgbo    = 1e-013        
+cgdl    = 1e-010        
+cgsl    = 1e-010        
+clc     = 1e-007        
+cle     = 0.6           
+cf      = 0             
+ckappas = 0.6           
+ckappad = 0.6           
+vfbcv   = -1            
+acde    = 0.6           
+moin    = 15            
+noff    = 2             
+voffcv  = 0.005         
+tvoff   = 0.001         
+ltvoff  = 0             
+wtvoff  = 0             
+ptvoff  = 0             
+kt1     = -0.37773746   
+lkt1    = 1.6718727e-008
+wkt1    = -7.0851491e-009
+pkt1    = 3.5425745e-015
+kt1l    = 0             
+kt2     = -0.014603854  
+lkt2    = -3.3230727e-009
+wkt2    = -3.8010589e-009
+pkt2    = 1.9005294e-015
+ute     = -1.4342857    
+wute    = 4.0457143e-008
+ua1     = 1.675e-009    
+ub1     = -3.65896e-018 
+lub1    = 2.4878e-025   
+wub1    = 7.7854254e-026
+pub1    = -3.8927127e-032
+uc1     = -5.6e-011     
+prt     = 0             
+at      = 23000         
+fnoimod = 1             
+tnoimod = 0             
+em      = 4.1e+007      
+ef      = 0.95          
+noia    = nmos_3p3_noia  
+noib    = nmos_3p3_noib  
+noic    = nmos_3p3_noic  
+ntnoi   = 1             
+jss     = 2.2959e-007   
+jsws    = 2.1207e-013   
+jswgs   = 0             
+njs     = 1.01          
+ijthsfwd= 0.1           
+ijthsrev= 0.1           
+pbs     = 0.70172       
+cjs     = 0.00096797    
+mjs     = 0.32071       
+pbsws   = 0.8062        
+cjsws   = 1.5663e-010   